@<TRIPOS>MOLECULE
pdb3b2x.ent_out_ok
 24 23 0 0 0
SMALL
GASTEIGER

@<TRIPOS>ATOM
      1 N          56.8324  -19.7941   37.9508 N.3     1  LIG       -0.3226
      2 CA         55.7772  -19.7240   36.9420 C.3     1  LIG        0.0449
      3 C          56.2112  -18.8421   35.7673 C.2     1  LIG        0.0584
      4 O          55.6370  -19.0151   34.6758 O.co2   1  LIG       -0.5482
      5 CB         54.4658  -19.1808   37.5400 C.3     1  LIG       -0.0323
      6 CG         54.0237  -19.8656   38.8397 C.3     1  LIG       -0.0465
      7 CD         52.6804  -19.3254   39.3316 C.3     1  LIG       -0.0126
      8 CE         52.3183  -19.8273   40.7254 C.3     1  LIG       -0.0354
      9 NZ         51.0160  -19.3011   41.1573 N.4     1  LIG        0.2185
     10 OXT        57.0412  -17.9422   35.9988 O.co2   1  LIG       -0.5482
     11 HA         55.6053  -20.7340   36.5689 H       1  LIG        0.0520
     12 HB1        54.5528  -18.1138   37.7360 H       1  LIG        0.0284
     13 HB2        53.6734  -19.2767   36.7964 H       1  LIG        0.0284
     14 HG1        53.9667  -20.9456   38.6997 H       1  LIG        0.0268
     15 HG2        54.7712  -19.6917   39.6122 H       1  LIG        0.0268
     16 HD1        52.6966  -18.2354   39.3346 H       1  LIG        0.0317
     17 HD2        51.9119  -19.6363   38.6310 H       1  LIG        0.0317
     18 HE1        52.2762  -20.9113   40.7034 H       1  LIG        0.0813
     19 HE2        53.0758  -19.5453   41.4539 H       1  LIG        0.0813
     20 HZ1        51.0072  -18.2901   41.1003 H       1  LIG        0.1994
     21 HZ2        50.2934  -19.6740   40.5518 H       1  LIG        0.1994
     22 HZ3        50.8263  -19.5780   42.1122 H       1  LIG        0.1994
     23 H1         56.5437  -20.3400   38.7556 H       1  LIG        0.1188
     24 H2         57.6266  -20.3032   37.5774 H       1  LIG        0.1188
@<TRIPOS>BOND
     1     1     2    1
     2     1    23    1
     3     1    24    1
     4     2     3    1
     5     2     5    1
     6     2    11    1
     7     3     4   ar
     8     3    10   ar
     9     5     6    1
    10     5    12    1
    11     5    13    1
    12     6     7    1
    13     6    14    1
    14     6    15    1
    15     7     8    1
    16     7    16    1
    17     7    17    1
    18     8     9    1
    19     8    18    1
    20     8    19    1
    21     9    20    1
    22     9    21    1
    23     9    22    1
