@<TRIPOS>MOLECULE
pdb3b3b.ent_out_ok
 26 27 0 0 0
SMALL
GASTEIGER

@<TRIPOS>ATOM
      1 N          56.3038  -19.9123   38.1221 N.3     1  TRP1       -0.3180
      2 CA         55.7546  -19.8386   36.7785 C.3     1  TRP1        0.1117
      3 C          56.6780  -19.0176   35.8775 C.2     1  TRP1        0.3727
      4 OXT        56.8003  -17.8103   36.1384 O.co2   1  TRP1       -0.2446
      5 CB         54.3375  -19.2367   36.7831 C.3     1  TRP1        0.0001
      6 CG         53.2279  -20.0619   37.3598 C.ar    1  TRP1       -0.0204
      7 CD1        52.5022  -20.9701   36.6718 C.ar    1  TRP1        0.0060
      8 CD2        52.6251  -19.9979   38.6870 C.ar    1  TRP1        0.0029
      9 CE2        51.4779  -20.8441   38.7046 C.ar    1  TRP1        0.0467
     10 CE3        52.8995  -19.2788   39.8677 C.ar    1  TRP1       -0.0523
     11 NE1        51.4807  -21.4416   37.4637 N.ar    1  TRP1       -0.3604
     12 CZ2        50.6116  -20.9179   39.8080 C.ar    1  TRP1       -0.0378
     13 CZ3        52.0516  -19.3528   40.9911 C.ar    1  TRP1       -0.0611
     14 CH2        50.8981  -20.1559   40.9548 C.ar    1  TRP1       -0.0598
     15 O          57.2414  -19.5929   34.9256 O.co2   1  TRP1       -0.2446
     16 HA         55.6995  -20.8519   36.3812 H       1  TRP1        0.0579
     17 HB1        54.3326  -18.2711   37.2871 H       1  TRP1        0.0334
     18 HB2        54.0496  -19.0290   35.7533 H       1  TRP1        0.0334
     19 HD1        52.6579  -21.2317   35.6382 H       1  TRP1        0.0810
     20 HE1        50.7760  -22.0861   37.1266 H       1  TRP1        0.1653
     21 HE3        53.7741  -18.6562   39.8800 H       1  TRP1        0.0624
     22 HZ2        49.7440  -21.5583   39.7776 H       1  TRP1        0.0638
     23 HZ3        52.2783  -18.7898   41.8812 H       1  TRP1        0.0618
     24 HH2        50.2483  -20.2108   41.8156 H       1  TRP1        0.0618
     25 H1         55.7027  -20.4381   38.7435 H       1  TRP1        0.1190
     26 H2         57.1830  -20.4155   38.1180 H       1  TRP1        0.1190
@<TRIPOS>BOND
     1    15     3   ar
     2    19     7    1
     3    18     5    1
     4     3     4   ar
     5     3     2    1
     6    16     2    1
     7     7     6   ar
     8     7    11   ar
     9     2     5    1
    10     2     1    1
    11     5    17    1
    12     5     6    1
    13    20    11    1
    14     6     8   ar
    15    11     9   ar
    16    26     1    1
    17     1    25    1
    18     8     9   ar
    19     8    10   ar
    20     9    12   ar
    21    22    12    1
    22    12    14   ar
    23    10    21    1
    24    10    13   ar
    25    14    13   ar
    26    14    24    1
    27    13    23    1
