@<TRIPOS>MOLECULE
pdb3b2x.ent_out_ok
 24 23 0 0 0
SMALL
GASTEIGER

@<TRIPOS>ATOM
      1 N          56.8324  -19.7941   37.9508 N.3     1  LYS1       -0.3183
      2 CA         55.7772  -19.7240   36.9420 C.3     1  LYS1        0.1077
      3 C          56.2112  -18.8421   35.7673 C.2     1  LYS1        0.3724
      4 O          55.6370  -19.0151   34.6758 O.co2   1  LYS1       -0.2446
      5 CB         54.4658  -19.1808   37.5400 C.3     1  LYS1       -0.0273
      6 CG         54.0237  -19.8656   38.8397 C.3     1  LYS1       -0.0529
      7 CD         52.6804  -19.3254   39.3316 C.3     1  LYS1       -0.0689
      8 CE         52.3183  -19.8273   40.7254 C.3     1  LYS1       -0.0963
      9 NZ         51.0160  -19.3011   41.1573 N.4     1  LYS1        0.3781
     10 OXT        57.0412  -17.9422   35.9988 O.co2   1  LYS1       -0.2446
     11 HA         55.6053  -20.7340   36.5689 H       1  LYS1        0.0575
     12 HB1        54.5528  -18.1138   37.7360 H       1  LYS1        0.0286
     13 HB2        53.6734  -19.2767   36.7964 H       1  LYS1        0.0286
     14 HG1        53.9667  -20.9456   38.6997 H       1  LYS1        0.0265
     15 HG2        54.7712  -19.6917   39.6122 H       1  LYS1        0.0265
     16 HD1        52.6966  -18.2354   39.3346 H       1  LYS1        0.0247
     17 HD2        51.9119  -19.6363   38.6310 H       1  LYS1        0.0247
     18 HE1        52.2762  -20.9113   40.7034 H       1  LYS1        0.0049
     19 HE2        53.0758  -19.5453   41.4539 H       1  LYS1        0.0049
     20 HZ1        51.0072  -18.2901   41.1003 H       1  LYS1       -0.0901
     21 HZ2        50.2934  -19.6740   40.5518 H       1  LYS1       -0.0901
     22 HZ3        50.8263  -19.5780   42.1122 H       1  LYS1       -0.0901
     23 H1         56.5437  -20.3400   38.7556 H       1  LYS1        0.1190
     24 H2         57.6266  -20.3032   37.5774 H       1  LYS1        0.1190
@<TRIPOS>BOND
     1     4     3   ar
     2     3    10   ar
     3     3     2    1
     4    11     2    1
     5    13     5    1
     6     2     5    1
     7     2     1    1
     8     5    12    1
     9     5     6    1
    10    24     1    1
    11     1    23    1
    12    17     7    1
    13    14     6    1
    14     6     7    1
    15     6    15    1
    16     7    16    1
    17     7     8    1
    18    21     9    1
    19    18     8    1
    20     8     9    1
    21     8    19    1
    22    20     9    1
    23     9    22    1
