@<TRIPOS>MOLECULE
pdb5y19.ent_out_ok
 49 49 0 0 0
SMALL
GASTEIGER

@<TRIPOS>ATOM
      1 N          11.5300   12.8000   12.8220 N.4     1  LIG        0.3822
      2 C          12.7480   11.9890   12.6790 C.3     1  LIG       -0.0443
      3 C          13.4500   12.2270   11.3130 C.3     1  LIG        0.1186
      4 O          12.4890   12.4620   10.3130 O.3     1  LIG       -0.3842
      5 C          13.7100   12.2270   13.8530 C.3     1  LIG       -0.0379
      6 C          13.2330   11.6380   15.1670 C.ar    1  LIG       -0.0488
      7 C          13.6500   10.3460   15.5510 C.ar    1  LIG       -0.0586
      8 C          12.4000   12.3850   16.0210 C.ar    1  LIG       -0.0586
      9 C          13.2640    9.8200   16.7980 C.ar    1  LIG       -0.0615
     10 C          11.9960   11.8470   17.2580 C.ar    1  LIG       -0.0615
     11 C          12.4350   10.5710   17.6530 C.ar    1  LIG       -0.0617
     12 N          15.5520   10.9890   10.9700 N.am    1  LIG       -0.3019
     13 O          13.5750   10.0200   10.4680 O.2     1  LIG       -0.2730
     14 N          18.3650    8.7020   11.6340 N.am    1  LIG       -0.1960
     15 O          17.5630   10.5550   12.6420 O.2     1  LIG       -0.2717
     16 O          19.0030    8.3370   12.8400 O.3     1  LIG       -0.2951
     17 C          14.2170   10.9780   10.8840 C.2     1  LIG        0.2406
     18 C          16.4210    9.8520   10.6600 C.3     1  LIG        0.1016
     19 C          16.8830    9.9270    9.1810 C.3     1  LIG       -0.0236
     20 C          17.4130    8.6180    8.5440 C.3     1  LIG       -0.0446
     21 C          17.8570    8.8540    7.0940 C.3     1  LIG       -0.0626
     22 C          16.3820    7.4780    8.5910 C.3     1  LIG       -0.0626
     23 C          17.5250    9.7430   11.7180 C.2     1  LIG        0.2558
     24 H          16.0070   11.8350   11.2900 H       1  LIG        0.1495
     25 H          18.2580    7.8940   11.0330 H       1  LIG        0.1823
     26 H          12.3970   10.9580   12.7300 H       1  LIG        0.0117
     27 H          13.8910   13.2960   13.9790 H       1  LIG        0.0298
     28 H          14.6800   11.7840   13.6270 H       1  LIG        0.0298
     29 H          14.2890    9.7640   14.9020 H       1  LIG        0.0620
     30 H          12.0760   13.3740   15.7320 H       1  LIG        0.0620
     31 H          13.5950    8.8360   17.0960 H       1  LIG        0.0618
     32 H          11.3510   12.4110   17.9090 H       1  LIG        0.0618
     33 H          12.1280   10.1640   18.6050 H       1  LIG        0.0618
     34 H          12.9280   12.7860    9.5420 H       1  LIG        0.2103
     35 H          18.4950    8.7930   13.4960 H       1  LIG        0.2414
     36 H          14.1010   13.0980   11.3580 H       1  LIG        0.0673
     37 H          10.6670   12.1510   12.8570 H       1  LIG       -0.0895
     38 H          11.5850   13.3750   13.7350 H       1  LIG       -0.0895
     39 H          11.4430   13.4700   11.9790 H       1  LIG       -0.0895
     40 H          15.8310    8.9510   10.7990 H       1  LIG        0.0595
     41 H          18.3020    8.2930    9.0800 H       1  LIG        0.0296
     42 H          17.6360   10.7110    9.0840 H       1  LIG        0.0290
     43 H          16.0440   10.2670    8.5730 H       1  LIG        0.0290
     44 H          18.2580    7.9440    6.6470 H       1  LIG        0.0232
     45 H          17.0240    9.1890    6.4800 H       1  LIG        0.0232
     46 H          18.6340    9.6090    7.0300 H       1  LIG        0.0232
     47 H          16.7290    6.6130    8.0310 H       1  LIG        0.0232
     48 H          16.2010    7.1310    9.6070 H       1  LIG        0.0232
     49 H          15.4270    7.7850    8.1610 H       1  LIG        0.0232
@<TRIPOS>BOND
     1    45    21    1
     2    44    21    1
     3    46    21    1
     4    21    20    1
     5    47    22    1
     6    49    22    1
     7    20    22    1
     8    20    41    1
     9    20    19    1
    10    43    19    1
    11    22    48    1
    12    42    19    1
    13    19    18    1
    14    34     4    1
    15     4     3    1
    16    13    17    2
    17    18    40    1
    18    18    12    1
    19    18    23    1
    20    17    12   am
    21    17     3    1
    22    12    24    1
    23    25    14    1
    24     3    36    1
    25     3     2    1
    26    14    23   am
    27    14    16    1
    28    23    15    2
    29    39     1    1
    30     2    26    1
    31     2     1    1
    32     2     5    1
    33     1    37    1
    34     1    38    1
    35    16    35    1
    36    28     5    1
    37     5    27    1
    38     5     6    1
    39    29     7    1
    40     6     7   ar
    41     6     8   ar
    42     7     9   ar
    43    30     8    1
    44     8    10   ar
    45     9    31    1
    46     9    11   ar
    47    10    11   ar
    48    10    32    1
    49    11    33    1
