@<TRIPOS>MOLECULE
pdb3ebh.ent_out_ok
46 46 2
SMALL
GASTEIGER

@<TRIPOS>DICT

@<TRIPOS>ATOM
      1 C          12.6320   12.0820   12.4700 C.3       0 UNK0        0.0000
      2 C          13.4180   12.2750   11.1510 C.3       0 UNK0        0.0000
      3 N          11.3380   12.7770   12.4720 N.4       0 UNK0        1.0000
      4 O          12.5430   12.5120   10.0700 O.3       0 UNK0        0.0000
      5 C          14.2020   11.0080   10.8320 C.2       0 UNK0        0.0000
      6 O          13.5950   10.0060   10.4860 O.2       0 UNK0        0.0000
      7 C          13.4950   12.4790   13.6740 C.3       0 UNK0        0.0000
      8 C          13.0550   11.8350   14.9690 C.ar      0 UNK0        0.0000
      9 C          12.2090   12.5230   15.8580 C.ar      0 UNK0        0.0000
     10 C          11.8480   11.9320   17.0820 C.ar      0 UNK0        0.0000
     11 C          12.3420   10.6610   17.4250 C.ar      0 UNK0        0.0000
     12 C          13.1790    9.9650   16.5320 C.ar      0 UNK0        0.0000
     13 C          13.5270   10.5470   15.2990 C.ar      0 UNK0        0.0000
     14 H          13.0490   12.8240    9.3400 H         0 UNK0        0.0000
     15 H          12.3680   11.0320   12.5840 H         0 UNK0        0.0000
     16 H          14.0750   13.1420   11.2290 H         0 UNK0        0.0000
     17 H          11.8450   13.5060   15.5980 H         0 UNK0        0.0000
     18 H          11.1880   12.4480   17.7590 H         0 UNK0        0.0000
     19 H          12.0650   10.2100   18.3670 H         0 UNK0        0.0000
     20 H          13.5490    8.9850   16.7880 H         0 UNK0        0.0000
     21 H          14.1750   10.0130   14.6220 H         0 UNK0        0.0000
     22 H          10.5390   12.0500   12.4720 H         0 UNK0        0.0000
     23 H          11.2630   13.3950   13.3540 H         0 UNK0        0.0000
     24 H          11.2610   13.3960   11.5910 H         0 UNK0        0.0000
     25 H          13.5400   13.5640   13.7860 H         0 UNK0        0.0000
     26 H          14.5190   12.1470   13.5030 H         0 UNK0        0.0000
     27 N          15.5280   11.0210   10.9640 N.am      1 LEU1        0.0000
     28 O          18.1440    8.6930   11.8020 O.co2     1 LEU1       -0.5000
     29 CA         16.3760    9.8600   10.7000 C.3       1 LEU1        0.0000
     30 OXT        17.5450   10.6850   12.5800 O.co2     1 LEU1       -0.5000
     31 C          17.4530    9.7350   11.7760 C.2       1 LEU1        0.0000
     32 CB         16.8770    9.9290    9.2380 C.3       1 LEU1        0.0000
     33 CG         17.3260    8.5990    8.6000 C.3       1 LEU1        0.0000
     34 CD2        16.2240    7.5230    8.6300 C.3       1 LEU1        0.0000
     35 CD1        17.7800    8.8470    7.1540 C.3       1 LEU1        0.0000
     36 H          15.9880   11.8670   11.2710 H         1 LEU1        0.0000
     37 HA         15.7730    8.9640   10.8350 H         1 LEU1        0.0000
     38 HG         18.1860    8.2260    9.1530 H         1 LEU1        0.0000
     39 HB1        17.6850   10.6590    9.1710 H         1 LEU1        0.0000
     40 HB2        16.0820   10.3340    8.6110 H         1 LEU1        0.0000
     41 HD21       16.5150    6.6520    8.0460 H         1 LEU1        0.0000
     42 HD22       16.0380    7.1630    9.6410 H         1 LEU1        0.0000
     43 HD23       15.2850    7.8960    8.2210 H         1 LEU1        0.0000
     44 HD11       18.1280    7.9340    6.6730 H         1 LEU1        0.0000
     45 HD12       16.9680    9.2410    6.5490 H         1 LEU1        0.0000
     46 HD13       18.5930    9.5670    7.1070 H         1 LEU1        0.0000
@<TRIPOS>BOND
     1    1    3 1
     2    1   15 1
     3    1    2 1
     4    1    7 1
     5   27    5 am
     6   27   29 1
     7   27   36 1
     8   28   31 ar
     9    2    4 1
    10    2    5 1
    11    2   16 1
    12    3   22 1
    13    3   23 1
    14    3   24 1
    15    4   14 1
    16    5    6 2
    17   29   31 1
    18   29   32 1
    19   29   37 1
    20   30   31 ar
    21    7   25 1
    22    7   26 1
    23    7    8 1
    24    8   13 ar
    25    8    9 ar
    26    9   10 ar
    27    9   17 1
    28   10   11 ar
    29   10   18 1
    30   11   12 ar
    31   11   19 1
    32   12   13 ar
    33   12   20 1
    34   13   21 1
    35   32   39 1
    36   32   33 1
    37   32   40 1
    38   33   38 1
    39   33   34 1
    40   33   35 1
    41   34   41 1
    42   34   43 1
    43   34   42 1
    44   35   45 1
    45   35   44 1
    46   35   46 1
@<TRIPOS>SUBSTRUCTURE
1 UNK0 1
2 LEU1 27
@<TRIPOS>COMMENT
0.0000
L


