@<TRIPOS>MOLECULE
pdb5y1k.ent_out_ok
 40 40 0 0 0
SMALL
GASTEIGER

@<TRIPOS>ATOM
      1 N          12.3230   12.0220   16.1200 N.am    1  LIG       -0.2952
      2 C          12.4680   12.1850   17.5550 C.3     1  LIG        0.0397
      3 O          14.2590   13.0010   15.4430 O.2     1  LIG       -0.2528
      4 C          12.8150   10.8650   18.2440 C.ar    1  LIG       -0.0120
      5 C          12.0890   10.4040   19.3670 C.ar    1  LIG        0.0456
      6 C          13.8740   10.0660   17.7550 C.ar    1  LIG       -0.0557
      7 C          12.4250    9.1820   19.9770 C.ar    1  LIG       -0.0431
      8 CL         10.7690   11.2920   20.0170 Cl      1  LIG       -0.0832
      9 N          13.1400   11.4900   14.1630 N.am    1  LIG       -0.2908
     10 O          12.9170   10.4080   11.3260 O.2     1  LIG       -0.5402
     11 C          13.4590    8.3840   19.4680 C.ar    1  LIG       -0.0604
     12 N          13.8390   12.4260   11.1620 N.am    1  LIG       -0.3096
     13 O          13.2470   12.7240   10.0000 O.3     1  LIG       -0.4229
     14 C          14.1840    8.8330   18.3540 C.ar    1  LIG       -0.0614
     15 C          13.2920   12.2670   15.2360 C.2     1  LIG        0.3004
     16 C          14.1860   11.1470   13.2190 C.3     1  LIG        0.0705
     17 C          14.7490    9.7510   13.5750 C.3     1  LIG       -0.0262
     18 C          15.8500    9.2420   12.6360 C.3     1  LIG       -0.0447
     19 C          16.9540   10.2860   12.4480 C.3     1  LIG       -0.0626
     20 C          16.4000    7.8890   13.1070 C.3     1  LIG       -0.0626
     21 C          13.6150   11.2890   11.8120 C.2     1  LIG        0.0760
     22 H          11.5510   11.4460   15.8220 H       1  LIG        0.1506
     23 H          12.2750   10.9780   14.0710 H       1  LIG        0.1509
     24 H          14.4200   13.1150   11.6230 H       1  LIG        0.1546
     25 H          13.2200   12.9330   17.8090 H       1  LIG        0.0512
     26 H          11.5160   12.5730   17.8990 H       1  LIG        0.0512
     27 H          14.4510   10.3860   16.9040 H       1  LIG        0.0621
     28 H          11.8930    8.8530   20.8490 H       1  LIG        0.0632
     29 H          13.7010    7.4430   19.9380 H       1  LIG        0.0618
     30 H          14.9810    8.2230   17.9690 H       1  LIG        0.0618
     31 H          14.9960   11.8640   13.3250 H       1  LIG        0.0567
     32 H          15.3910    9.0740   11.6680 H       1  LIG        0.0296
     33 H          13.9500    9.0160   13.5990 H       1  LIG        0.0289
     34 H          15.1310    9.7580   14.5930 H       1  LIG        0.0289
     35 H          17.8550    9.8570   12.0150 H       1  LIG        0.0232
     36 H          16.6210   11.0930   11.7990 H       1  LIG        0.0232
     37 H          17.2130   10.7600   13.3850 H       1  LIG        0.0232
     38 H          17.1130    7.4840   12.3870 H       1  LIG        0.0232
     39 H          16.8990    7.9670   14.0720 H       1  LIG        0.0232
     40 H          15.5990    7.1570   13.2090 H       1  LIG        0.0232
@<TRIPOS>BOND
     1    13    12    1
     2    12    24    1
     3    12    21   am
     4    10    21    2
     5    32    18    1
     6    36    19    1
     7    21    16    1
     8    35    19    1
     9    38    20    1
    10    19    18    1
    11    19    37    1
    12    18    20    1
    13    18    17    1
    14    20    40    1
    15    20    39    1
    16    16    31    1
    17    16    17    1
    18    16     9    1
    19    17    33    1
    20    17    34    1
    21    23     9    1
    22     9    15   am
    23    15     3    2
    24    15     1   am
    25    22     1    1
    26     1     2    1
    27    27     6    1
    28     2    25    1
    29     2    26    1
    30     2     4    1
    31     6     4   ar
    32     6    14   ar
    33    30    14    1
    34     4     5   ar
    35    14    11   ar
    36     5     7   ar
    37     5     8    1
    38    11    29    1
    39    11     7   ar
    40     7    28    1
