REMARK  10 active torsions:
REMARK  status: ('A' for Active; 'I' for Inactive)
REMARK       I    between atoms: N_1  and  C_15 
REMARK    1  A    between atoms: N_1  and  CA_3 
REMARK    2  A    between atoms: CA_3  and  C_5 
REMARK    3  A    between atoms: CA_3  and  CB_6 
REMARK    4  A    between atoms: CB_6  and  CG_7 
REMARK    5  A    between atoms: C_11  and  N_13 
REMARK    6  A    between atoms: C_11  and  C_12 
REMARK    7  A    between atoms: C_11  and  C_17 
REMARK    8  A    between atoms: C_12  and  O_14 
REMARK    9  A    between atoms: C_12  and  C_15 
REMARK   10  A    between atoms: C_17  and  C_18 
ROOT
ATOM      1  C   UNK     2      13.418  12.275  11.151  0.00  0.00     0.240 C 
ENDROOT
BRANCH   1   2
ATOM      2  C   UNK     2      12.632  12.082  12.470  0.00  0.00     0.225 C 
BRANCH   2   3
ATOM      3  N   UNK     2      11.338  12.777  12.472  0.00  0.00    -0.072 N 
ATOM      4  H   UNK     2      10.539  12.050  12.472  0.00  0.00     0.274 HD
ATOM      5  H   UNK     2      11.263  13.395  13.354  0.00  0.00     0.274 HD
ATOM      6  H   UNK     2      11.261  13.396  11.591  0.00  0.00     0.274 HD
ENDBRANCH   2   3
BRANCH   2   7
ATOM      7  C   UNK     2      13.495  12.479  13.674  0.00  0.00     0.074 C 
BRANCH   7   8
ATOM      8  C   UNK     2      13.055  11.835  14.969  0.00  0.00    -0.056 A 
ATOM      9  C   UNK     2      13.527  10.547  15.299  0.00  0.00     0.007 A 
ATOM     10  C   UNK     2      13.179   9.965  16.532  0.00  0.00     0.001 A 
ATOM     11  C   UNK     2      12.342  10.661  17.425  0.00  0.00     0.000 A 
ATOM     12  C   UNK     2      11.848  11.932  17.082  0.00  0.00     0.001 A 
ATOM     13  C   UNK     2      12.209  12.523  15.858  0.00  0.00     0.007 A 
ENDBRANCH   7   8
ENDBRANCH   2   7
ENDBRANCH   1   2
BRANCH   1  14
ATOM     14  O   UNK     2      12.543  12.512  10.070  0.00  0.00    -0.384 OA
ATOM     15  H   UNK     2      13.049  12.824   9.340  0.00  0.00     0.210 HD
ENDBRANCH   1  14
BRANCH   1  16
ATOM     16  C   UNK     2      14.202  11.008  10.832  0.00  0.00     0.249 C 
ATOM     17  N   UNK     1      15.528  11.021  10.964  0.00  0.00    -0.344 N 
ATOM     18  H   UNK     1      15.988  11.867  11.271  0.00  0.00     0.163 HD
ATOM     19  O   UNK     2      13.595  10.006  10.486  0.00  0.00    -0.271 OA
BRANCH  17  20
ATOM     20  CA  UNK     1      16.376   9.860  10.700  0.00  0.00     0.185 C 
BRANCH  20  21
ATOM     21  C   UNK     1      17.453   9.735  11.776  0.00  0.00     0.196 C 
ATOM     22  O   UNK     1      18.144   8.693  11.802  0.00  0.00    -0.646 OA
ATOM     23  OXT UNK     1      17.545  10.685  12.580  0.00  0.00    -0.646 OA
ENDBRANCH  20  21
BRANCH  20  24
ATOM     24  CB  UNK     1      16.877   9.929   9.238  0.00  0.00     0.040 C 
BRANCH  24  25
ATOM     25  CG  UNK     1      17.326   8.599   8.600  0.00  0.00    -0.020 C 
ATOM     26  CD2 UNK     1      16.224   7.523   8.630  0.00  0.00     0.009 C 
ATOM     27  CD1 UNK     1      17.780   8.847   7.154  0.00  0.00     0.009 C 
ENDBRANCH  24  25
ENDBRANCH  20  24
ENDBRANCH  17  20
ENDBRANCH   1  16
TORSDOF 10
